LTspice 24.1.9 for Windows
Circuit: C:\users\ben_wang\Desktop\everything\Code\volt\pcb\Volt.net
Start Time: Fri Jun 27 12:08:19 2025
solver = Normal
Maximum thread count: 8
tnom = 27
temp = 27
method = trap
Early termination of direct N-R iteration.
Direct Newton iteration failed to find .op point.  (Use ".option noopiter" to skip.)
Starting Gmin stepping
Gmin = 10
vernier = 0.5
vernier = 0.25
vernier = 0.125
Gmin = 5.5165
vernier = 0.0625
vernier = 0.03125
vernier = 0.015625
vernier = 0.0078125
Gmin = 5.49501
vernier = 0.00390625
vernier = 0.00195312
vernier = 0.000976562
vernier = 0.000488281
Gmin = 5.50104
Gmin = 0
Gmin stepping succeeded in finding the operating point.

Total elapsed time: 0.093 seconds.

Files loaded:
C:\users\ben_wang\Desktop\everything\Code\volt\pcb\Volt.net
C:\users\ben_wang\Desktop\everything\Code\volt\pcb\TL072CN\TL072.sub

